INIT MASTER(S)
ID skyhunter,FEMAP
SOL SEMODES
CEND
  TITLE = skyhunter_modes
  ECHO = NONE
  DISPLACEMENT(PRINT) = ALL
  METHOD = 1
BEGIN BULK
$ ***************************************************************************
PARAM,PRGPST,YES
PARAM,POST,-1
PARAM,OGEOM,NO
PARAM,AUTOSPC,YES
PARAM,GRDPNT,0
EIGRL          1                      10       0                    MASS
CORD2C         1       0      0.      0.      0.      0.      0.      1.+FEMAPC1
+FEMAPC1      1.      0.      1.        
CORD2S         2       0      0.      0.      0.      0.      0.      1.+FEMAPC2
+FEMAPC2      1.      0.      1.        
$ Femap Coordinate System 3 : CG
CORD2R         3       0   21.53      0.     20.   21.53      0.     21.+       
+          22.53      0.     20.        
$ Femap Property 1 : foam plate
PSHELL         1       1     0.5       1               1              0.
$ Femap Property 2 : carbon rod
PSHELL         2       2     0.2       2               2              0.
$ Femap Property 3 : carbon tube
PBAR           3       20.0301598.701E-48.701E-41.740E-3      0.        +       
+             0.   -0.25    0.25      0.      0.    0.25   -0.25      0.+       
+        0.53208 0.53208      0.
$ Femap Material 1 : foam
MAT1           1 100000.             0.3   5.E-6      0.      0.        
$ Femap Material 2 : carbon
MAT1           2   1.E+7             0.3  1.8E-4      0.      0.        
GRID           1       0 24.8203 1.43792 19.4292       0
GRID           2       0 24.0311 2.51375 19.4034       0
GRID           3       0 25.6166 2.63988 19.4628       0
GRID           4       0 29.0261 0.99032 19.6524       0
GRID           5       0 29.5275 1.64764  19.685       0
GRID           6       0 29.5275 0.89433  19.685       0
GRID           7       0  28.446 1.08084 19.6163       0
GRID           8       0 28.5676 1.94761 19.6237       0
GRID          10       0 22.0568 11.6294 19.3961       0
GRID          11       0 22.3716 9.95581 19.3893       0
GRID          12       0  21.184 10.7754 19.4317       0
GRID          13       0 27.6086 2.09295 19.5667       0
GRID          15       0 27.8597 1.15872 19.5812       0
GRID          18       0 29.5275 2.97985  19.685       0
GRID          19       0 22.4892 2.63425 19.3878       0
GRID          20       0 22.0992 3.90775 19.3949       0
GRID          21       0 23.4314 3.70877 19.3907       0
GRID          22       0 23.4244 11.3704 19.3906       0
GRID          25       0 23.2348 1.50574 19.3881       0
GRID          28       0 23.7593 6.48948 19.3968       0
$ ... 3129 like lines cut
CTRIA3         1       1       1       2       3                        
CTRIA3         2       1       4       5       6                        
CTRIA3         3       1       7       8       4                        
CTRIA3         4       1      10      11      12                        
CTRIA3         5       1      13       8      15                        
CTRIA3         6       1       5       8      18                        
CTRIA3         7       1      19      20      21                        
CTRIA3         8       1      22      11      10                        
CTRIA3         9       1      25      19       2                        
CTRIA3        10       1      28      29      30                        
CTRIA3        11       1      31      21      33                        
CTRIA3        12       1      34      35      36                        
CTRIA3        13       1      37      38      34                        
CTRIA3        14       1      40      41      19                        
CTRIA3        15       1      12      44      45                        
CTRIA3        16       1      46      47      48                        
CTRIA3        17       1      44      50      45                        
CTRIA3        18       1      52      53      54                        
CTRIA3        19       1      55      40      19                        
CTRIA3        20       1      30      59      60                        
$ ... 6274 like lines cut
CONM2       6295    8045       02.591E-3      0.      0.      0.                
ENDDATA 3ca02b2d
